Version 4
SHEET 1 880 680
WIRE 48 -224 -208 -224
WIRE 448 -192 384 -192
WIRE 592 -192 512 -192
WIRE -448 -176 -448 -208
WIRE -208 -160 -208 -224
WIRE 384 -80 384 -192
WIRE 432 -80 384 -80
WIRE 592 -80 592 -192
WIRE 592 -80 512 -80
WIRE -448 -64 -448 -96
WIRE -448 -32 -448 -64
WIRE 48 0 48 -224
WIRE 48 0 -48 0
WIRE -208 16 -208 -80
WIRE -112 16 -208 16
WIRE 592 16 592 -80
WIRE 592 16 512 16
WIRE 272 32 240 32
WIRE 384 32 384 -80
WIRE 384 32 352 32
WIRE 448 32 384 32
WIRE -112 48 -144 48
WIRE 48 48 48 0
WIRE 96 48 48 48
WIRE 240 48 240 32
WIRE 240 48 96 48
WIRE 448 64 384 64
WIRE -208 96 -208 16
WIRE -448 112 -448 48
WIRE -144 176 -144 48
WIRE 96 176 96 128
WIRE 96 176 -144 176
WIRE 96 224 96 176
WIRE 384 240 384 64
WIRE 400 320 384 320
WIRE -208 384 -208 160
WIRE 96 384 96 304
WIRE 96 384 -208 384
WIRE 128 384 96 384
WIRE 400 384 400 320
WIRE 544 384 544 352
WIRE 544 384 400 384
WIRE 544 464 400 464
FLAG 128 384 0
FLAG -448 -64 0
FLAG -448 -208 +VCC
FLAG -448 112 -VCC
FLAG -48 64 +VCC
FLAG 512 80 +VCC
FLAG -48 32 -VCC
FLAG 512 48 -VCC
FLAG 400 464 0
FLAG 544 272 +VCC
SYMBOL AutoGenerated\\TL08X -80 32 M180
SYMATTR InstName U1
SYMBOL AutoGenerated\\TL08X 480 48 M180
SYMATTR InstName U2
SYMBOL res -224 -176 R0
SYMATTR InstName R1
SYMATTR Value 10k
SYMBOL res 80 32 R0
SYMATTR InstName R2
SYMATTR Value 10k
SYMBOL res 80 208 R0
SYMATTR InstName R3
SYMATTR Value 10k
SYMBOL res 368 16 R90
WINDOW 0 0 56 VBottom 2
WINDOW 3 32 56 VTop 2
SYMATTR InstName R4
SYMATTR Value 200k
SYMBOL res 528 -96 R90
WINDOW 0 0 56 VBottom 2
WINDOW 3 32 56 VTop 2
SYMATTR InstName R5
SYMATTR Value 1Meg
SYMBOL res 400 336 R180
WINDOW 0 36 76 Left 2
WINDOW 3 36 40 Left 2
SYMATTR InstName R6
SYMATTR Value 150k
SYMBOL cap -224 96 R0
SYMATTR InstName C1
SYMATTR Value 1µ
SYMBOL cap 512 -208 R90
WINDOW 0 0 32 VBottom 2
WINDOW 3 32 32 VTop 2
SYMATTR InstName C2
SYMATTR Value 100n
SYMBOL voltage -448 -192 R0
WINDOW 123 0 0 Left 0
WINDOW 39 0 0 Left 0
SYMATTR InstName V1
SYMATTR Value 15
SYMBOL voltage -448 -48 R0
WINDOW 123 0 0 Left 0
WINDOW 39 0 0 Left 0
SYMATTR InstName V2
SYMATTR Value 15
SYMBOL res 528 256 R0
SYMATTR InstName R7
SYMATTR Value 1Meg
SYMBOL res 528 368 R0
SYMATTR InstName R8
SYMATTR Value 63k
TEXT 104 504 Left 2 !.tran 0 200m 120m 100u startup
