Version 4
SHEET 1 1064 680
WIRE -368 0 -368 -16
WIRE -208 0 -208 -16
WIRE 224 0 224 -16
WIRE 848 16 848 -16
WIRE 336 80 224 80
WIRE -368 96 -368 80
WIRE -208 96 -208 80
WIRE 224 112 224 80
WIRE 848 112 848 96
WIRE 896 112 848 112
WIRE 928 112 896 112
WIRE 896 144 896 112
WIRE 1008 144 896 144
WIRE 48 160 -112 160
WIRE 160 160 128 160
WIRE -112 176 -112 160
WIRE 720 192 720 -16
WIRE 800 192 720 192
WIRE 720 208 720 192
WIRE 1008 224 1008 144
WIRE -112 272 -112 256
WIRE 224 272 224 208
WIRE 720 304 720 288
WIRE 720 304 640 304
WIRE 848 304 848 208
WIRE 848 304 720 304
WIRE 1008 304 1008 288
WIRE 1008 304 848 304
FLAG 224 272 0
FLAG -208 96 0
FLAG -208 -16 5V
FLAG 224 -16 5V
FLAG -112 272 0
FLAG -112 160 Vi
FLAG 336 80 VO_BJT
FLAG 640 304 Vi
FLAG 720 -16 3.3V
FLAG 928 112 VO_CMOS
FLAG 848 -16 5V
FLAG -368 96 0
FLAG -368 -16 3.3V
SYMBOL res 144 144 R90
WINDOW 0 0 56 VBottom 2
WINDOW 3 32 56 VTop 2
SYMATTR InstName R1
SYMATTR Value 2k2
SYMBOL res 208 -16 R0
SYMATTR InstName R2
SYMATTR Value 220k
SYMBOL pnp 160 208 M180
SYMATTR InstName Q1
SYMATTR Value BC557C
SYMBOL voltage -208 -16 R0
WINDOW 123 0 0 Left 0
WINDOW 39 0 0 Left 0
SYMATTR InstName V1
SYMATTR Value 5V
SYMBOL voltage -112 160 R0
WINDOW 3 -141 167 Left 2
WINDOW 123 0 0 Left 0
WINDOW 39 0 0 Left 0
SYMATTR InstName V2
SYMATTR Value PULSE(0.3 5 0.5m 0.001m 0.001m 0.5m 1m 20)
SYMBOL nmos 800 112 R0
SYMATTR InstName M1
SYMATTR Value 2N7002
SYMBOL res 832 0 R0
SYMATTR InstName R3
SYMATTR Value 2k2
SYMBOL res 736 304 R180
WINDOW 0 36 76 Left 2
WINDOW 3 36 40 Left 2
SYMATTR InstName R4
SYMATTR Value 2k2
SYMBOL diode 1024 288 R180
WINDOW 0 24 64 Left 2
WINDOW 3 24 0 Left 2
SYMATTR InstName D1
SYMBOL voltage -368 -16 R0
WINDOW 123 0 0 Left 0
WINDOW 39 0 0 Left 0
SYMATTR InstName V3
SYMATTR Value 5V
TEXT -254 348 Left 2 !.tran 0 20m 10m 0.001m
