Version 4
SHEET 1 880 680
WIRE 448 -48 -16 -48
WIRE 448 -16 448 -48
WIRE 400 0 176 0
WIRE 448 80 448 64
WIRE 576 80 448 80
WIRE 448 112 448 80
WIRE 176 192 176 0
WIRE 400 192 176 192
WIRE -16 240 -16 -48
WIRE 176 240 176 192
WIRE -16 416 -16 320
WIRE 176 416 176 320
WIRE 448 416 448 208
FLAG 576 80 Vo
FLAG 448 416 0
FLAG 176 416 0
FLAG -16 416 0
SYMBOL nmos 400 112 R0
SYMATTR InstName M1
SYMATTR Value IRFZ44N
SYMBOL voltage 176 224 R0
WINDOW 123 0 0 Left 0
WINDOW 39 0 0 Left 0
SYMATTR InstName V1
SYMATTR Value 5
SYMBOL voltage -16 224 R0
WINDOW 123 0 0 Left 0
WINDOW 39 0 0 Left 0
SYMATTR InstName V2
SYMATTR Value 5
SYMBOL pmos 400 80 M180
SYMATTR InstName M2
SYMATTR Value IRF9640
TEXT -48 440 Left 2 !.op
