Version 4
SHEET 1 2076 680
WIRE 128 -208 -336 -208
WIRE -752 -192 -1216 -192
WIRE 128 -176 128 -208
WIRE 1824 -176 1408 -176
WIRE -752 -160 -752 -192
WIRE 80 -160 -144 -160
WIRE 1824 -160 1824 -176
WIRE 880 -144 544 -144
WIRE 1072 -144 880 -144
WIRE 880 -128 880 -144
WIRE 1072 -112 1072 -144
WIRE 128 -80 128 -96
WIRE 256 -80 128 -80
WIRE 1984 -80 1824 -80
WIRE -752 -64 -752 -80
WIRE -624 -64 -752 -64
WIRE 1824 -64 1824 -80
WIRE 128 -48 128 -80
WIRE -752 -32 -752 -64
WIRE 880 -32 880 -48
WIRE 1072 -16 1072 -32
WIRE 1152 -16 1072 -16
WIRE 1664 -16 1600 -16
WIRE 1760 -16 1744 -16
WIRE -144 32 -144 -160
WIRE 80 32 -144 32
WIRE 832 32 688 32
WIRE 1008 32 928 32
WIRE -800 48 -1024 48
WIRE 1408 48 1408 -176
WIRE 1600 48 1600 -16
WIRE 544 64 544 -144
WIRE 688 64 688 32
WIRE -336 80 -336 -208
WIRE -144 80 -144 32
WIRE -1216 96 -1216 -192
WIRE -1024 96 -1024 48
WIRE 544 160 544 144
WIRE 688 160 688 144
WIRE 1072 160 1072 80
WIRE 1408 160 1408 128
WIRE 1600 160 1600 128
WIRE 1824 160 1824 32
WIRE -336 256 -336 160
WIRE -144 256 -144 160
WIRE 128 256 128 48
WIRE -1216 272 -1216 176
WIRE -1024 272 -1024 176
WIRE -752 272 -752 64
FLAG -624 -64 nmos_out
FLAG -752 272 0
FLAG -1024 272 0
FLAG -1216 272 0
FLAG 256 -80 cmos_out
FLAG 128 256 0
FLAG -144 256 0
FLAG -336 256 0
FLAG 688 160 0
FLAG 544 160 0
FLAG 1072 160 0
FLAG 1152 -16 ttl_out
FLAG 1408 160 0
FLAG 1600 160 0
FLAG 1824 160 0
FLAG 1984 -80 rtl_out
SYMBOL nmos -800 -32 R0
SYMATTR InstName M1
SYMATTR Value IRFZ44N
SYMBOL res -768 -176 R0
SYMATTR InstName R1
SYMATTR Value 10k
SYMBOL voltage -1024 80 R0
WINDOW 123 0 0 Left 0
WINDOW 39 0 0 Left 0
SYMATTR InstName V1
SYMATTR Value 5
SYMBOL voltage -1216 80 R0
WINDOW 123 0 0 Left 0
WINDOW 39 0 0 Left 0
SYMATTR InstName V2
SYMATTR Value 5
SYMBOL nmos 80 -48 R0
SYMATTR InstName M2
SYMATTR Value IRFZ44N
SYMBOL voltage -144 64 R0
WINDOW 123 0 0 Left 0
WINDOW 39 0 0 Left 0
SYMATTR InstName V3
SYMATTR Value 5
SYMBOL voltage -336 64 R0
WINDOW 123 0 0 Left 0
WINDOW 39 0 0 Left 0
SYMATTR InstName V4
SYMATTR Value 5
SYMBOL pmos 80 -80 M180
SYMATTR InstName M3
SYMATTR Value IRF9640
SYMBOL npn 928 -32 R90
SYMATTR InstName Q1
SYMATTR Value BC547C
SYMBOL npn 1008 -16 R0
SYMATTR InstName Q2
SYMATTR Value BC547C
SYMBOL res 864 -144 R0
SYMATTR InstName R2
SYMATTR Value 470k
SYMBOL res 1056 -128 R0
SYMATTR InstName R3
SYMATTR Value 10k
SYMBOL voltage 688 48 R0
WINDOW 123 0 0 Left 0
WINDOW 39 0 0 Left 0
SYMATTR InstName V5
SYMATTR Value 5
SYMBOL voltage 544 48 R0
WINDOW 123 0 0 Left 0
WINDOW 39 0 0 Left 0
SYMATTR InstName V6
SYMATTR Value 5
SYMBOL npn 1760 -64 R0
SYMATTR InstName Q3
SYMATTR Value BC547C
SYMBOL res 1760 -32 R90
WINDOW 0 0 56 VBottom 2
WINDOW 3 32 56 VTop 2
SYMATTR InstName R4
SYMATTR Value 470k
SYMBOL res 1840 -64 R180
WINDOW 0 36 76 Left 2
WINDOW 3 36 40 Left 2
SYMATTR InstName R5
SYMATTR Value 10k
SYMBOL voltage 1600 32 R0
WINDOW 123 0 0 Left 0
WINDOW 39 0 0 Left 0
SYMATTR InstName V7
SYMATTR Value 5
SYMBOL voltage 1408 32 R0
WINDOW 123 0 0 Left 0
WINDOW 39 0 0 Left 0
SYMATTR InstName V8
SYMATTR Value 5
TEXT -1248 296 Left 2 !.op
